28
1.out	Energy: -713807.4462872
H          0.77331        1.86613       -0.00062
S          2.00616        2.22090       -0.37382
C          2.93405        1.02341        0.63760
C          2.78619       -0.43223        0.18847
C          1.41386       -0.97478        0.58384
N          0.87560       -1.84954       -0.27177
C         -0.32931       -2.59162        0.02208
C         -1.61514       -1.80838       -0.22383
N         -1.81692       -0.78354        0.63737
C         -2.92836        0.09892        0.48327
C         -2.53526        1.46222       -0.02850
O         -3.60697        2.24037       -0.18306
H         -3.30002        3.09571       -0.50232
H          2.64240        1.11639        1.67592
H          3.97386        1.32263        0.54684
H          3.48639       -1.02079        0.78279
N          3.06940       -0.69701       -1.21009
H          4.06267       -0.72366       -1.37411
H          2.69266        0.05230       -1.77468
O          0.88593       -0.64980        1.63758
H          1.39380       -2.01616       -1.11581
H         -0.29785       -2.91214        1.06057
H         -0.36449       -3.46306       -0.61796
O         -2.39210       -2.12138       -1.09796
H         -1.05593       -0.53513        1.25090
H         -3.46107        0.23865        1.42236
H         -3.62405       -0.34836       -0.21870
O         -1.42097        1.83560       -0.25910
